/*--------------------------------*- C++ -*----------------------------------*\
  =========                 |
  \\      /  F ield         | OpenFOAM: The Open Source CFD Toolbox
   \\    /   O peration     | Website:  https://openfoam.org
    \\  /    A nd           | Version:  9
     \\/     M anipulation  |
\*---------------------------------------------------------------------------*/
FoamFile
{
    format      ascii;
    class       volVectorField;
    location    "0";
    object      U;
}
// * * * * * * * * * * * * * * * * * * * * * * * * * * * * * * * * * * * * * //

dimensions      [0 1 -1 0 0 0 0];

internalField   uniform (0 0 0.2);

boundaryField
{
    wallTube
    {
        type            noSlip;
    }

    outlet
    {
        type            pressureInletOutletVelocity;
        value           $internalField;
    }

    inletAir
    {
        type            fixedValue;
        value           uniform (0 0 0.2);
    }

    wallOutside
    {
        type            zeroGradient;
    }

    inletCH4
    {
        type            fixedValue;
        value           uniform (0 0 34.8);
    }

    frontAndBack_pos
    {
        type            wedge;
    }

    frontAndBack_neg
    {
        type            wedge;
    }
}


// ************************************************************************* //
